Version 4
SHEET 1 1004 1140
WIRE -752 -512 -768 -512
WIRE -656 -512 -672 -512
WIRE -560 -512 -656 -512
WIRE -64 -512 -464 -512
WIRE 80 -512 -64 -512
WIRE 208 -512 80 -512
WIRE 384 -512 208 -512
WIRE -64 -464 -64 -512
WIRE 80 -464 80 -512
WIRE 208 -464 208 -512
WIRE -656 -448 -656 -512
WIRE -512 -432 -512 -448
WIRE -432 -432 -512 -432
WIRE -304 -432 -352 -432
WIRE -656 -368 -656 -384
WIRE -304 -368 -576 -368
WIRE 80 -352 80 -400
WIRE 160 -352 80 -352
WIRE 208 -352 208 -384
WIRE 208 -352 160 -352
WIRE -240 -320 -240 -432
WIRE -240 -320 -272 -320
WIRE -64 -320 -64 -384
WIRE -64 -320 -240 -320
WIRE 160 -320 160 -352
WIRE -512 -288 -512 -432
WIRE -416 -288 -512 -288
WIRE -768 -272 -768 -512
WIRE -576 -272 -576 -368
WIRE -576 -272 -768 -272
WIRE -64 -272 -64 -320
WIRE -160 -256 -272 -256
WIRE -576 -224 -576 -272
WIRE -544 -224 -576 -224
WIRE -64 -160 -64 -192
WIRE -368 -128 -448 -128
WIRE -224 -128 -288 -128
WIRE -576 -64 -576 -224
WIRE -576 -64 -672 -64
WIRE -352 -64 -576 -64
WIRE -672 -48 -672 -64
WIRE -352 -32 -352 -64
WIRE -544 16 -560 16
WIRE -448 16 -448 -128
WIRE -448 16 -464 16
WIRE -384 16 -448 16
WIRE -224 48 -224 -128
WIRE -224 48 -240 48
WIRE -160 48 -160 -256
WIRE -160 48 -224 48
WIRE -384 80 -480 80
WIRE -832 144 -976 144
WIRE -752 144 -832 144
WIRE -560 144 -672 144
WIRE -480 144 -480 80
WIRE -480 144 -560 144
WIRE -832 160 -832 144
WIRE -560 176 -560 144
WIRE -832 240 -832 224
WIRE -976 288 -976 144
WIRE -560 288 -560 256
FLAG -560 96 0
FLAG -352 128 0
FLAG -672 32 0
FLAG -560 368 0
FLAG -976 368 0
FLAG -832 240 0
FLAG -304 -208 0
FLAG -656 -368 0
FLAG -64 -160 0
FLAG 160 -320 0
FLAG -544 -160 0
SYMBOL Opamps\\LT1636 -352 48 R0
SYMATTR InstName U1
SYMBOL res -272 -144 R90
WINDOW 0 0 56 VBottom 2
WINDOW 3 32 56 VTop 2
SYMATTR InstName R2
SYMATTR Value 1.5Meg
SYMBOL res -576 0 R0
SYMATTR InstName R3
SYMATTR Value 150k
SYMBOL res -576 160 R0
SYMATTR InstName R4
SYMATTR Value 120k
SYMBOL voltage -672 -64 R0
WINDOW 123 0 0 Left 2
WINDOW 39 0 0 Left 2
WINDOW 3 24 44 Left 2
SYMATTR Value 40
SYMATTR InstName V_SW
SYMBOL voltage -560 272 R0
WINDOW 123 0 0 Left 2
WINDOW 39 0 0 Left 2
SYMATTR InstName V_DAC
SYMATTR Value 1.49
SYMBOL voltage -976 272 R0
WINDOW 123 0 0 Left 2
WINDOW 39 0 0 Left 2
SYMATTR InstName V3
SYMATTR Value 3.3
SYMBOL res -656 128 R90
WINDOW 0 0 56 VBottom 2
WINDOW 3 32 56 VTop 2
SYMATTR InstName R5
SYMATTR Value 150k
SYMBOL cap -848 160 R0
SYMATTR InstName C2
SYMATTR Value 47µ
SYMBOL Opamps\\LT1636 -304 -288 M0
SYMATTR InstName U3
SYMBOL npn -560 -448 R270
SYMATTR InstName Q1
SYMATTR Value BCX41
SYMBOL res -336 -448 R90
WINDOW 0 0 56 VBottom 2
WINDOW 3 32 56 VTop 2
SYMATTR InstName R1
SYMATTR Value 2.2k
SYMBOL cap -240 -448 R90
WINDOW 0 0 32 VBottom 2
WINDOW 3 32 32 VTop 2
SYMATTR InstName C1
SYMATTR Value 2.2n
SYMBOL res -80 -288 R0
SYMATTR InstName R6
SYMATTR Value 1Meg
SYMBOL res -80 -480 R0
SYMATTR InstName R7
SYMATTR Value 1Meg
SYMBOL res -656 -528 R90
WINDOW 0 0 56 VBottom 2
WINDOW 3 32 56 VTop 2
SYMATTR InstName R12
SYMATTR Value 4.7k
SYMBOL cap -672 -448 R0
SYMATTR InstName C3
SYMATTR Value 4.7µ
SYMBOL cap 64 -464 R0
SYMATTR InstName C4
SYMATTR Value 1µ
SYMBOL res 192 -480 R0
SYMATTR InstName R13
SYMATTR Value 10k
SYMBOL res -448 0 R90
WINDOW 0 0 56 VBottom 2
WINDOW 3 32 56 VTop 2
SYMATTR InstName R8
SYMATTR Value 56k
SYMBOL cap -560 -224 R0
SYMATTR InstName C5
SYMATTR Value 100n
TEXT -848 -88 Left 2 ;SWITCHING AMPLIFIER
TEXT -512 320 Left 2 ;DAC
TEXT -936 312 Left 2 ;ADG819BCB
TEXT -936 336 Left 1 ;3.3V if enabled, 0V otherwise
TEXT -288 -680 Left 2 !.tran 1
TEXT -288 -640 Left 2 ;.dc V_DAC 0.01 1.45 .1
