Version 4
SHEET 1 880 788
WIRE -368 -16 -448 -16
WIRE -224 -16 -288 -16
WIRE -352 48 -672 48
WIRE -672 64 -672 48
WIRE -352 80 -352 48
WIRE -448 128 -448 -16
WIRE -448 128 -560 128
WIRE -384 128 -448 128
WIRE -224 160 -224 -16
WIRE -224 160 -240 160
WIRE -192 160 -224 160
WIRE -160 160 -192 160
WIRE -48 160 -80 160
WIRE 80 160 -48 160
WIRE 192 160 80 160
WIRE 384 160 288 160
WIRE 528 160 384 160
WIRE 80 176 80 160
WIRE -384 192 -480 192
WIRE 384 192 384 160
WIRE 528 192 528 160
WIRE -832 256 -976 256
WIRE -752 256 -832 256
WIRE -560 256 -672 256
WIRE -480 256 -480 192
WIRE -480 256 -560 256
WIRE 240 256 240 224
WIRE 240 256 80 256
WIRE -832 272 -832 256
WIRE -560 288 -560 256
WIRE 384 288 384 256
WIRE 496 288 384 288
WIRE 528 288 528 272
WIRE 528 288 496 288
WIRE 496 304 496 288
WIRE -832 352 -832 336
WIRE -192 352 -192 160
WIRE -48 352 -48 160
WIRE 96 352 32 352
WIRE 272 352 176 352
WIRE -976 400 -976 256
WIRE -560 400 -560 368
WIRE 224 400 112 400
WIRE 112 448 112 400
WIRE -48 480 -48 432
WIRE 32 480 32 352
WIRE 32 480 -48 480
WIRE 64 480 32 480
WIRE 272 512 272 352
WIRE 272 512 208 512
WIRE 400 512 272 512
WIRE -192 544 -192 432
WIRE -48 544 -192 544
WIRE 64 544 -48 544
WIRE -48 560 -48 544
WIRE -48 656 -48 640
WIRE 112 656 112 576
WIRE 224 656 224 400
WIRE 112 752 112 736
WIRE 176 752 112 752
WIRE 224 752 224 736
WIRE 224 752 176 752
WIRE 176 768 176 752
FLAG -560 208 0
FLAG -352 240 0
FLAG 496 304 0
FLAG -672 144 0
FLAG -560 480 0
FLAG -976 480 0
FLAG 176 768 0
FLAG -48 656 0
FLAG -832 352 0
SYMBOL res 64 160 R0
SYMATTR InstName R1
SYMATTR Value 1k
SYMBOL Opamps\\LT1636 -352 160 R0
SYMATTR InstName U1
SYMBOL res -272 -32 R90
WINDOW 0 0 56 VBottom 2
WINDOW 3 32 56 VTop 2
SYMATTR InstName R2
SYMATTR Value 158k
SYMBOL res -576 112 R0
SYMATTR InstName R3
SYMATTR Value 10k
SYMBOL res -64 144 R90
WINDOW 0 0 56 VBottom 2
WINDOW 3 32 56 VTop 2
SYMATTR InstName R6
SYMATTR Value 10
SYMBOL cap 368 192 R0
SYMATTR InstName C1
SYMATTR Value 10µ
SYMBOL res 512 176 R0
SYMATTR InstName R7
SYMATTR Value 40k
SYMBOL res -576 272 R0
SYMATTR InstName R4
SYMATTR Value 100k
SYMBOL voltage -672 48 R0
WINDOW 123 0 0 Left 2
WINDOW 39 0 0 Left 2
WINDOW 3 24 44 Left 2
SYMATTR InstName V_SW
SYMATTR Value 40
SYMBOL voltage -560 384 R0
WINDOW 123 0 0 Left 2
WINDOW 39 0 0 Left 2
SYMATTR InstName V_DAC_0-1.5
SYMATTR Value 1.5
SYMBOL voltage -976 384 R0
WINDOW 123 0 0 Left 2
WINDOW 39 0 0 Left 2
SYMATTR InstName V3
SYMATTR Value 3.3
SYMBOL npn 192 224 R270
WINDOW 3 109 15 VRight 2
SYMATTR Value BC817-25
SYMATTR InstName Q2
SYMBOL res -64 336 R0
SYMATTR InstName R8
SYMATTR Value 1Meg
SYMBOL res -208 336 R0
SYMATTR InstName R9
SYMATTR Value 1Meg
SYMBOL res 192 336 R90
WINDOW 0 0 56 VBottom 2
WINDOW 3 32 56 VTop 2
SYMATTR InstName R10
SYMATTR Value 1Meg
SYMBOL res -32 656 R180
WINDOW 0 36 76 Left 2
WINDOW 3 36 40 Left 2
SYMATTR InstName R11
SYMATTR Value 1Meg
SYMBOL CustomComponents\\OP196G 112 512 R0
SYMATTR InstName U2
SYMBOL voltage 224 640 R0
WINDOW 123 0 0 Left 2
WINDOW 39 0 0 Left 2
SYMATTR InstName Vad+
SYMATTR Value 3.3
SYMBOL voltage 112 640 R0
WINDOW 123 0 0 Left 2
WINDOW 39 0 0 Left 2
SYMATTR InstName Vad-
SYMATTR Value -3.3
SYMBOL res -656 240 R90
WINDOW 0 0 56 VBottom 2
WINDOW 3 32 56 VTop 2
SYMATTR InstName R5
SYMATTR Value 100k
SYMBOL cap -848 272 R0
SYMATTR InstName C2
SYMATTR Value 47µ
TEXT 32 -128 Left 2 !.tran 1
TEXT 456 120 Left 2 ;LOAD
TEXT -824 16 Left 2 ;SWITCHING AMPLIFIER
TEXT -512 432 Left 2 ;DAC
TEXT -936 424 Left 2 ;ADG819BCB
TEXT -936 448 Left 1 ;3.3V if enabled, 0V otherwise
